# generated using pymatgen
data_MoO3
_symmetry_space_group_name_H-M   Pc
_cell_length_a   7.14468352
_cell_length_b   5.40499669
_cell_length_c   5.60163750
_cell_angle_alpha   90.00000000
_cell_angle_beta   90.43738379
_cell_angle_gamma   90.00000000
_symmetry_Int_Tables_number   7
_chemical_formula_structural   MoO3
_chemical_formula_sum   'Mo4 O12'
_cell_volume   216.31208089
_cell_formula_units_Z   4
loop_
 _symmetry_equiv_pos_site_id
 _symmetry_equiv_pos_as_xyz
  1  'x, y, z'
  2  'x, -y, z+1/2'
loop_
 _atom_type_symbol
 _atom_type_oxidation_number
  Mo6+  6.0
  O2-  -2.0
loop_
 _atom_site_type_symbol
 _atom_site_label
 _atom_site_symmetry_multiplicity
 _atom_site_fract_x
 _atom_site_fract_y
 _atom_site_fract_z
 _atom_site_occupancy
  Mo6+  Mo0  2  0.00115607  0.25171704  0.53649614  1
  Mo6+  Mo1  2  0.50126542  0.24499999  0.70157087  1
  O2-  O2  2  0.04432461  0.01607532  0.33704904  1
  O2-  O3  2  0.25324763  0.32611981  0.62374873  1
  O2-  O4  2  0.46173954  0.01760865  0.36857355  1
  O2-  O5  2  0.54465258  0.46572882  0.91667719  1
  O2-  O6  2  0.75261674  0.17605169  0.61251819  1
  O2-  O7  2  0.96179541  0.49810416  0.85216729  1
