# generated using pymatgen
data_Re2O7
_symmetry_space_group_name_H-M   P2_12_12_1
_cell_length_a   5.55836400
_cell_length_b   12.74065800
_cell_length_c   15.56604400
_cell_angle_alpha   90.00000000
_cell_angle_beta   90.00000000
_cell_angle_gamma   90.00000000
_symmetry_Int_Tables_number   19
_chemical_formula_structural   Re2O7
_chemical_formula_sum   'Re16 O56'
_cell_volume   1102.34388097
_cell_formula_units_Z   8
loop_
 _symmetry_equiv_pos_site_id
 _symmetry_equiv_pos_as_xyz
  1  'x, y, z'
  2  '-x+1/2, -y, z+1/2'
  3  'x+1/2, -y+1/2, -z'
  4  '-x, y+1/2, -z+1/2'
loop_
 _atom_type_symbol
 _atom_type_oxidation_number
  Re7+  7.0
  O2-  -2.0
loop_
 _atom_site_type_symbol
 _atom_site_label
 _atom_site_symmetry_multiplicity
 _atom_site_fract_x
 _atom_site_fract_y
 _atom_site_fract_z
 _atom_site_occupancy
  Re7+  Re0  4  0.06251900  0.26791300  0.36353500  1
  Re7+  Re1  4  0.06669800  0.02382100  0.63036400  1
  Re7+  Re2  4  0.17242400  0.47445100  0.64353600  1
  Re7+  Re3  4  0.18592000  0.71999000  0.36334200  1
  O2-  O4  4  0.00216600  0.24436600  0.22793000  1
  O2-  O5  4  0.01236400  0.05396000  0.52423200  1
  O2-  O6  4  0.01550500  0.28651200  0.47177500  1
  O2-  O7  4  0.01658600  0.99681600  0.76453100  1
  O2-  O8  4  0.03406200  0.51330000  0.54957100  1
  O2-  O9  4  0.04583900  0.76202600  0.45586200  1
  O2-  O10  4  0.05417300  0.20873900  0.85064700  1
  O2-  O11  4  0.07296800  0.45112000  0.15644700  1
  O2-  O12  4  0.22295400  0.41583500  0.86973300  1
  O2-  O13  4  0.23247600  0.66035500  0.13914400  1
  O2-  O14  4  0.23588700  0.07997500  0.12182700  1
  O2-  O15  4  0.23620400  0.87163500  0.16089900  1
  O2-  O16  4  0.23814900  0.62638300  0.83914400  1
  O2-  O17  4  0.24466100  0.83810600  0.86259800  1
